[Format]      =  4.0
[Frequency]   =  22
[Precision]   =  1e-008
[MinAngle]    =  30
[DoSmartMesh] =  1
[Depth]       =  1
[LengthUnits] =  millimeters
[ProblemType] =  axisymmetric
[Coordinates] =  cartesian
[ACSolver]    =  0
[PrevType]    =  0
[PrevSoln]    =  ""
[Comment]     =  "Add comments here."
[PointProps]   = 0
[BdryProps]   = 0
[BlockProps]  = 7
  <BeginBlock>
    <BlockName> = "Air"
    <Mu_x> = 1
    <Mu_y> = 1
    <H_c> = 0
    <H_cAngle> = 0
    <J_re> = 0
    <J_im> = 0
    <Sigma> = 0
    <d_lam> = 0
    <Phi_h> = 0
    <Phi_hx> = 0
    <Phi_hy> = 0
    <LamType> = 0
    <LamFill> = 1
    <NStrands> = 0
    <WireD> = 0
    <BHPoints> = 0
  <EndBlock>
  <BeginBlock>
    <BlockName> = "1010 Steel"
    <Mu_x> = 902.60000000000002
    <Mu_y> = 902.60000000000002
    <H_c> = 0
    <H_cAngle> = 0
    <J_re> = 0
    <J_im> = 0
    <Sigma> = 5.7999999999999998
    <d_lam> = 0
    <Phi_h> = 20
    <Phi_hx> = 0
    <Phi_hy> = 0
    <LamType> = 0
    <LamFill> = 1
    <NStrands> = 0
    <WireD> = 0
    <BHPoints> = 38
      0	0
      0.21186199999999999	79.577472
      0.26566499999999998	100.182101
      0.33237699999999998	126.121793
      0.414377	158.77793
      0.51381100000000002	199.88957099999999
      0.63189899999999999	251.646061
      0.76778400000000002	316.80362000000002
      0.917018	398.83212800000001
      1.0703530000000001	502.09990099999999
      1.2142550000000001	632.10632499999997
      1.3346370000000001	795.77471500000001
      1.4229810000000001	1001.821011
      1.480634	1261.2179289999999
      1.5172140000000001	1587.779301
      1.5445150000000001	1998.89571
      1.571296	2516.4606050000002
      1.6020490000000001	3168.036204
      1.638404	3988.3212819999999
      1.68049	5020.9990129999996
      1.727311	6321.0632500000002
      1.776659	7957.747155
      1.8254010000000001	10018.210114
      1.870557	12612.179292999999
      1.910809	15877.793009999999
      1.947222	19988.957103000001
      1.9823280000000001	25164.606051999999
      2.0182519999999999	31680.362036999999
      2.0553979999999998	39883.212823000002
      2.0925449999999999	50209.990126999997
      2.1280950000000001	63210.632496999999
      2.1616119999999999	79577.471546000001
      2.1946439999999998	100182.101136
      2.2303389999999998	126121.79292599999
      2.272386	158777.930096
      2.3242820000000002	199889.57102999999
      2.3893559999999998	251646.06052200001
      2.471238	316803.62037000002
  <EndBlock>
  <BeginBlock>
    <BlockName> = "Wire"
    <Mu_x> = 1
    <Mu_y> = 1
    <H_c> = 0
    <H_cAngle> = 0
    <J_re> = 0
    <J_im> = 0
    <Sigma> = 58
    <d_lam> = 0
    <Phi_h> = 0
    <Phi_hx> = 0
    <Phi_hy> = 0
    <LamType> = 3
    <LamFill> = 1
    <NStrands> = 1
    <WireD> = 0.84999999999999998
    <BHPoints> = 0
  <EndBlock>
  <BeginBlock>
    <BlockName> = "17G1S"
    <Mu_x> = 1
    <Mu_y> = 1
    <H_c> = 0
    <H_cAngle> = 0
    <J_re> = 0
    <J_im> = 0
    <Sigma> = 1.4299999999999999
    <d_lam> = 0
    <Phi_h> = 0
    <Phi_hx> = 0
    <Phi_hy> = 0
    <LamType> = 0
    <LamFill> = 1
    <NStrands> = 0
    <WireD> = 0
    <BHPoints> = 21
      0	0
      0.16	270
      0.46999999999999997	430
      0.75149999999999995	560
      0.98999999999999999	791.84000000000003
      1.1799999999999999	1142.8599999999999
      1.3100000000000001	1559.1800000000001
      1.46	2400
      1.605	4000
      1.702	6040.8199999999997
      1.764	8000
      1.8120000000000001	10040.82
      1.8460000000000001	12040.82
      1.885	15000
      1.9319999999999999	20500
      2.0174509999999999	40500
      2.1173540000000002	90500
      2.2618670000000001	190500
      2.45696	340500
      2.967155	740500
      8.0439690000000006	4740500
  <EndBlock>
  <BeginBlock>
    <BlockName> = "12H18N10T"
    <Mu_x> = 1
    <Mu_y> = 1
    <H_c> = 0
    <H_cAngle> = 0
    <J_re> = 0
    <J_im> = 0
    <Sigma> = 1.379
    <d_lam> = 0
    <Phi_h> = 0
    <Phi_hx> = 0
    <Phi_hy> = 0
    <LamType> = 0
    <LamFill> = 1
    <NStrands> = 0
    <WireD> = 0
    <BHPoints> = 0
  <EndBlock>
  <BeginBlock>
    <BlockName> = "12H18N9T"
    <Mu_x> = 1.28
    <Mu_y> = 1.28
    <H_c> = 0
    <H_cAngle> = 0
    <J_re> = 0
    <J_im> = 0
    <Sigma> = 1.1599999999999999
    <d_lam> = 0
    <Phi_h> = 0
    <Phi_hx> = 0
    <Phi_hy> = 0
    <LamType> = 0
    <LamFill> = 1
    <NStrands> = 0
    <WireD> = 0
    <BHPoints> = 0
  <EndBlock>
  <BeginBlock>
    <BlockName> = "38H2MUA"
    <Mu_x> = 902.60000000000002
    <Mu_y> = 902.60000000000002
    <H_c> = 0
    <H_cAngle> = 0
    <J_re> = 0
    <J_im> = 0
    <Sigma> = 5.7999999999999998
    <d_lam> = 0
    <Phi_h> = 20
    <Phi_hx> = 0
    <Phi_hy> = 0
    <LamType> = 0
    <LamFill> = 1
    <NStrands> = 0
    <WireD> = 0
    <BHPoints> = 38
      0	0
      0.21186199999999999	79.577472
      0.26566499999999998	100.182101
      0.33237699999999998	126.121793
      0.414377	158.77793
      0.51381100000000002	199.88957099999999
      0.63189899999999999	251.646061
      0.76778400000000002	316.80362000000002
      0.917018	398.83212800000001
      1.0703530000000001	502.09990099999999
      1.2142550000000001	632.10632499999997
      1.3346370000000001	795.77471500000001
      1.4229810000000001	1001.821011
      1.480634	1261.2179289999999
      1.5172140000000001	1587.779301
      1.5445150000000001	1998.89571
      1.571296	2516.4606050000002
      1.6020490000000001	3168.036204
      1.638404	3988.3212819999999
      1.68049	5020.9990129999996
      1.727311	6321.0632500000002
      1.776659	7957.747155
      1.8254010000000001	10018.210114
      1.870557	12612.179292999999
      1.910809	15877.793009999999
      1.947222	19988.957103000001
      1.9823280000000001	25164.606051999999
      2.0182519999999999	31680.362036999999
      2.0553979999999998	39883.212823000002
      2.0925449999999999	50209.990126999997
      2.1280950000000001	63210.632496999999
      2.1616119999999999	79577.471546000001
      2.1946439999999998	100182.101136
      2.2303389999999998	126121.79292599999
      2.272386	158777.930096
      2.3242820000000002	199889.57102999999
      2.3893559999999998	251646.06052200001
      2.471238	316803.62037000002
  <EndBlock>
[CircuitProps]  = 1
  <BeginCircuit>
    <CircuitName> = "New Circuit"
    <TotalAmps_re> = 0.18099999999999999
    <TotalAmps_im> = 0
    <CircuitType> = 1
  <EndCircuit>
[NumPoints] = 209
67.5	-34.5	0	0
67.5	34.5	0	0
80.5	34.5	0	0
80.5	-34.5	0	0
0	-3000	0	0
0	-156	0	0
0	0	0	0
0	156	0	0
350	0	0	0
350	2979.5133830879163	0	0
0	3000	0	0
1350	0	0	0
350	-2979.5133830879181	0	0
340	-2980.6710653810846	0	0
340	2980.6710653810824	0	0
67.5	0.15515499999999999	0	3
0	-31.464786	0	3
35	88.75	0	0
21	82.951009999999997	0	0
35	98.25	0	0
21	104.04899	0	0
21	111.69576600000001	0	0
24.608035999999998	156	0	0
26	156	0	0
21	147.5	0	0
21	126.5	0	0
15	116.10769500000001	0	0
15	70.892304999999993	0	0
21	60.5	0	0
21	39.5	0	0
24.608035999999998	31	0	0
26	31	0	0
21	75.304233999999994	0	0
37.5	132	0	0
52.5	132	0	0
52.5	114.5	0	0
32.192681	114.5	0	0
29.086079000000002	122	0	0
30	149	0	0
37.5	149	0	0
37.5	38	0	0
30	38	0	0
37.5	57	0	0
52.5	57	0	0
52.5	72.5	0	0
32.192681	72.5	0	0
29.086079000000002	65	0	0
38.5	-37	0	0
38.5	37	0	0
37.5	-37	0	0
37.5	-57	0	0
52.5	-57	0	0
52.5	-45	0	0
51.5	-45	0	0
51.5	45	0	0
52.5	45	0	0
37.5	37	0	0
35	-98.25	0	0
21	-104.04899	0	0
35	-88.75	0	0
21	-82.951009999999997	0	0
21	-75.304233999999994	0	0
24.608035999999998	-31	0	0
26	-31	0	0
21	-39.5	0	0
21	-60.5	0	0
15	-70.892304999999993	0	0
15	-116.10769500000001	0	0
21	-126.5	0	0
21	-147.5	0	0
24.608035999999998	-156	0	0
26	-156	0	0
21	-111.69576600000001	0	0
37.5	-38	0	0
30	-38	0	0
32.192681	-72.5	0	0
29.086079000000002	-65	0	0
52.5	-72.5	0	0
52.5	-132	0	0
37.5	-132	0	0
52.5	-114.5	0	0
32.192681	-114.5	0	0
29.086079000000002	-122	0	0
37.5	-149	0	0
30	-149	0	0
64	-259	0	0
63	-259	0	0
64	-249	0	0
62.5	-249	0	0
62.5	-246	0	0
63	-245.5	0	0
63	-223	0	0
60	-223	0	0
60	-197	0	0
57	-197	0	0
57	-144	0	0
53	-144	0	0
37.5	-151.5	0	0
32	-151.5	0	0
18	-168.18455	0	0
18	-481.81545	0	0
32	-498.5	0	0
37.5	-498.5	0	0
37.5	-518	0	0
53	-518	0	0
53	-506	0	0
57	-506	0	0
57	-453	0	0
60	-453	0	0
60	-427	0	0
63	-427	0	0
63	-404.5	0	0
62.5	-404	0	0
62.5	-401	0	0
64	-401	0	0
64	-391	0	0
63	-391	0	0
72	-249	0	0
72	-254	0	0
82	-254	0	0
82	-259	0	0
82	-391	0	0
82	-396	0	0
72	-396	0	0
72	-401	0	0
72	-139	0	0
72	-144	0	0
82	-139	0	0
82	-132	0	0
72	-506	0	0
72	-511	0	0
82	-511	0	0
82	-518	0	0
71	-249	0	0
71	-144	0	0
71	-401	0	0
71	-506	0	0
61.5	132	0	0
61.5	127	0	0
58.5	127	0	0
58.5	117	0	0
55.5	117	0	0
55.5	127	0	0
52.5	127	0	0
55.5	57	0	0
55.5	67	0	0
58.5	67	0	0
58.5	57	0	0
61.5	57	0	0
61.5	50	0	0
56.5	45	0	0
61.5	-132	0	0
61.5	-127	0	0
58.5	-127	0	0
58.5	-117	0	0
55.5	-117	0	0
55.5	-127	0	0
52.5	-127	0	0
55.5	-57	0	0
55.5	-67	0	0
58.5	-67	0	0
58.5	-57	0	0
61.5	-57	0	0
61.5	-50	0	0
56.5	-45	0	0
61.5	-21	0	0
61.5	21	0	0
56.5	26	0	0
51.5	26	0	0
51.5	44	0	0
65.5	44	0	0
65.5	-44	0	0
51.5	-44	0	0
51.5	-26	0	0
56.5	-26	0	0
18	191.5	0	0
19.939596999999999	180.5	0	0
14	191.5	0	0
14	165.5	0	0
19.5	165.5	0	0
33.5	151.5	0	0
37.5	151.5	0	0
61.5	167	0	0
76.5	167	0	0
76.5	183	0	0
62	183	0	0
62	213	0	0
50	213	0	0
50	194	0	0
37.73686	190.714102	0	0
35	180.5	0	0
57	218.5	0	0
67	218.5	0	0
67	214.5	0	0
70.5	214.5	0	0
76.5	208.5	0	0
45	213	0	0
45	542	0	0
57	542	0	0
82.75	46	0	0
83.75	45	0	0
83.75	34.5	0	0
83.75	-34.5	0	0
83.75	-45	0	0
82.75	-46	0	0
66.5	-46	0	0
65.5	-45	0	0
65.5	45	0	0
66.5	46	0	0
[NumSegments] = 216
4	5	-1	0	0	0
6	7	-1	0	0	0
8	9	-1	0	0	0
5	16	-1	0	0	0
7	10	-1	0	0	0
12	8	-1	0	0	0
13	14	1	0	0	0
2	201	-1	0	0	3
3	202	-1	0	0	3
15	1	0.10000000000000001	0	0	1
16	6	-1	0	0	0
17	18	-1	0	0	0
19	17	-1	0	0	0
20	19	-1	0	0	0
21	20	-1	0	0	0
22	23	-1	0	0	0
24	22	-1	0	0	0
25	24	-1	0	0	0
26	25	-1	0	0	0
27	26	-1	0	0	0
28	27	-1	0	0	0
29	28	-1	0	0	0
30	29	-1	0	0	0
31	30	-1	0	0	0
18	32	-1	0	0	0
33	34	-1	0	0	0
34	143	-1	0	0	0
35	36	-1	0	0	0
36	37	-1	0	0	0
38	39	-1	0	0	0
39	33	-1	0	0	0
40	41	-1	0	0	0
42	40	-1	0	0	0
43	42	-1	0	0	0
44	43	-1	0	0	0
45	44	-1	0	0	0
46	45	-1	0	0	0
49	47	-1	0	0	0
50	73	-1	0	0	0
51	50	-1	0	0	0
52	51	-1	0	0	0
53	52	-1	0	0	0
54	169	-1	0	0	0
55	54	-1	0	0	0
43	55	-1	0	0	0
56	40	-1	0	0	0
48	56	-1	0	0	0
57	58	-1	0	0	0
59	57	-1	0	0	0
60	59	-1	0	0	0
61	60	-1	0	0	0
62	63	-1	0	0	0
64	62	-1	0	0	0
65	64	-1	0	0	0
66	65	-1	0	0	0
67	66	-1	0	0	0
68	67	-1	0	0	0
69	68	-1	0	0	0
70	69	-1	0	0	0
71	70	-1	0	0	0
58	72	-1	0	0	0
73	49	-1	0	0	0
74	73	-1	0	0	0
75	76	-1	0	0	0
77	75	-1	0	0	0
51	77	-1	0	0	0
78	79	-1	0	0	0
80	157	-1	0	0	0
81	80	-1	0	0	0
82	81	-1	0	0	0
83	84	-1	0	0	0
79	83	-1	0	0	0
85	86	-1	0	0	0
87	85	-1	0	0	0
88	87	-1	0	0	0
89	88	-1	0	0	0
90	89	-1	0	0	0
91	90	-1	0	0	0
92	91	-1	0	0	0
93	92	-1	0	0	0
94	93	-1	0	0	0
95	94	-1	0	0	0
96	95	-1	0	0	0
78	96	-1	0	0	0
97	83	-1	0	0	0
98	97	-1	0	0	0
99	98	-1	0	0	0
100	99	-1	0	0	0
101	100	-1	0	0	0
102	101	-1	0	0	0
103	102	-1	0	0	0
104	103	-1	0	0	0
105	104	-1	0	0	0
106	105	-1	0	0	0
107	106	-1	0	0	0
108	107	-1	0	0	0
109	108	-1	0	0	0
110	109	-1	0	0	0
111	110	-1	0	0	0
112	111	-1	0	0	0
113	112	-1	0	0	0
114	113	-1	0	0	0
115	114	-1	0	0	0
116	115	-1	0	0	0
86	116	-1	0	0	0
87	133	-1	0	0	0
117	118	-1	0	0	0
118	119	-1	0	0	0
119	120	-1	0	0	0
120	85	-1	0	0	0
115	121	-1	0	0	0
121	122	-1	0	0	0
122	123	-1	0	0	0
123	124	-1	0	0	0
124	135	-1	0	0	0
125	126	-1	0	0	0
127	125	-1	0	0	0
128	127	-1	0	0	0
78	151	-1	0	0	0
126	134	-1	0	0	0
106	136	-1	0	0	0
129	130	-1	0	0	0
130	131	-1	0	0	0
131	132	-1	0	0	0
132	104	-1	0	0	0
133	117	-1	0	0	0
134	95	-1	0	0	0
133	134	-1	0	0	0
126	117	-1	0	0	0
135	114	-1	0	0	0
124	129	-1	0	0	0
136	129	-1	0	0	0
136	135	-1	0	0	0
34	137	-1	0	0	0
137	138	-1	0	0	0
138	139	-1	0	0	0
139	140	-1	0	0	0
140	141	-1	0	0	0
141	142	-1	0	0	0
143	35	-1	0	0	0
142	143	-1	0	0	0
43	144	-1	0	0	0
144	145	-1	0	0	0
145	146	-1	0	0	0
146	147	-1	0	0	0
147	148	-1	0	0	0
148	149	-1	0	0	0
149	150	-1	0	0	0
150	55	-1	0	0	0
151	128	-1	0	0	0
152	151	-1	0	0	0
153	152	-1	0	0	0
154	153	-1	0	0	0
155	154	-1	0	0	0
156	155	-1	0	0	0
157	78	-1	0	0	0
157	156	-1	0	0	0
158	51	-1	0	0	0
159	158	-1	0	0	0
160	159	-1	0	0	0
161	160	-1	0	0	0
162	161	-1	0	0	0
163	162	-1	0	0	0
164	163	-1	0	0	0
52	164	-1	0	0	0
167	168	-1	0	0	0
169	168	-1	0	0	0
169	170	-1	0	0	0
170	171	-1	0	0	0
172	53	-1	0	0	0
171	172	-1	0	0	0
173	172	-1	0	0	0
173	174	-1	0	0	0
175	176	-1	0	0	0
177	175	-1	0	0	0
178	177	-1	0	0	0
179	178	-1	0	0	0
180	179	-1	0	0	0
181	180	-1	0	0	0
39	181	-1	0	0	0
182	137	-1	0	0	0
183	182	-1	0	0	0
184	183	-1	0	0	0
185	184	-1	0	0	0
186	185	-1	0	0	0
187	186	-1	0	0	0
188	187	-1	0	0	0
189	188	-1	0	0	0
190	189	-1	0	0	0
176	190	-1	0	0	0
191	192	-1	0	0	0
192	193	-1	0	0	0
193	194	-1	0	0	0
194	195	-1	0	0	0
195	184	-1	0	0	0
187	196	-1	0	0	0
196	197	-1	0	0	0
197	198	-1	0	0	0
198	191	-1	0	0	0
199	200	-1	0	0	0
200	201	-1	0	0	0
202	203	-1	0	0	0
203	204	-1	0	0	0
204	205	-1	0	0	0
205	206	-1	0	0	0
206	171	-1	0	0	0
170	207	-1	0	0	0
207	208	-1	0	0	0
208	199	-1	0	0	0
47	48	-1	0	0	0
165	166	-1	0	0	0
2	1	-1	0	0	0
15	0	-1	0	0	0
0	3	-1	0	0	0
168	173	-1	0	0	0
2	3	-1	0	0	0
[NumArcSegments] = 19
4	13	6.5075035917447437	1	0	0	0	1
13	12	0.1922615860154408	1	0	0	0	1
12	9	166.60046964447994	1	0	0	0	1
9	14	0.19226158601544011	1	0	0	0	1
14	10	6.5075035917447472	1	0	0	0	1
21	37	23.250573243286023	5	0	0	0	5
37	38	49.117050073148114	5	0	0	0	5
38	23	14.250032683565818	5	0	0	0	5
31	41	14.250032614005141	5	0	0	0	5
41	46	49.117050130434237	5	0	0	0	5
46	32	23.250573255560564	5	0	0	0	5
61	76	23.250573255560571	5	0	0	0	5
76	74	49.117050130434237	5	0	0	0	5
74	63	14.250032614005148	5	0	0	0	5
71	84	14.250032683565831	5	0	0	0	5
84	82	49.1170500731481	5	0	0	0	5
82	72	23.25057324328602	5	0	0	0	5
166	167	90	5	0	0	0	5
174	165	90	5	0	0	0	5
[NumHoles] = 0
[NumBlockLabels] = 29
120	-300	1	10	0	0	0	1	0
343	92	4	1	0	0	4	1	0
477	-291	1	-1	0	0	0	1	0
74	-41	2	1	0	0	2	1	0
72	-19	3	0.5	1	0	1	950	0
56	4	1	-1	0	0	0	1	0
59	-37	5	1	0	0	0	1	0
44	-40	2	1	0	0	0	1	0
26	-51	7	1	0	0	0	1	0
28	54	7	1	0	0	0	1	0
45	-125	7	1	0	0	0	1	0
43	120	7	1	0	0	0	1	0
64.5	-175.59999999999999	1	-1	0	0	0	1	0
71.489999999999995	-402.91000000000003	5	0.25	0	0	0	1	0
71.329999999999998	-247.77000000000001	5	0.25	0	0	0	1	0
43.600000000000001	-63.299999999999997	7	1	0	0	0	1	0
57.600000000000001	-51.899999999999999	5	-1	0	0	0	1	0
56.100000000000001	-129.40000000000001	5	1	0	0	0	1	0
60.299999999999997	-137.40000000000001	5	1	0	0	0	1	0
46.600000000000001	-146.80000000000001	2	1	0	0	3	1	0
56	52.5	5	-1	0	0	0	1	0
47.799999999999997	64.599999999999994	7	1	0	0	0	1	0
56	129.30000000000001	5	1	0	0	0	1	0
55.399999999999999	134.40000000000001	5	1	0	0	0	1	0
67.5	191.09999999999999	2	1	0	0	3	1	0
67	-255	5	1	0	0	0	1	0
67	-396	5	1	0	0	0	1	0
66	-445	1	-1	0	0	0	1	0
62	-512	5	1	0	0	0	1	0
