[Format]      =  4.0
[Frequency]   =  22
[Precision]   =  1e-008
[MinAngle]    =  30
[DoSmartMesh] =  1
[Depth]       =  1
[LengthUnits] =  millimeters
[ProblemType] =  axisymmetric
[Coordinates] =  cartesian
[ACSolver]    =  0
[PrevType]    =  0
[PrevSoln]    =  ""
[Comment]     =  "Add comments here."
[PointProps]   = 0
[BdryProps]   = 0
[BlockProps]  = 6
  <BeginBlock>
    <BlockName> = "Air"
    <Mu_x> = 1
    <Mu_y> = 1
    <H_c> = 0
    <H_cAngle> = 0
    <J_re> = 0
    <J_im> = 0
    <Sigma> = 0
    <d_lam> = 0
    <Phi_h> = 0
    <Phi_hx> = 0
    <Phi_hy> = 0
    <LamType> = 0
    <LamFill> = 1
    <NStrands> = 0
    <WireD> = 0
    <BHPoints> = 0
  <EndBlock>
  <BeginBlock>
    <BlockName> = "1010 Steel"
    <Mu_x> = 902.60000000000002
    <Mu_y> = 902.60000000000002
    <H_c> = 0
    <H_cAngle> = 0
    <J_re> = 0
    <J_im> = 0
    <Sigma> = 5.7999999999999998
    <d_lam> = 0
    <Phi_h> = 20
    <Phi_hx> = 0
    <Phi_hy> = 0
    <LamType> = 0
    <LamFill> = 1
    <NStrands> = 0
    <WireD> = 0
    <BHPoints> = 38
      0	0
      0.21186199999999999	79.577472
      0.26566499999999998	100.182101
      0.33237699999999998	126.121793
      0.414377	158.77793
      0.51381100000000002	199.88957099999999
      0.63189899999999999	251.646061
      0.76778400000000002	316.80362000000002
      0.917018	398.83212800000001
      1.0703530000000001	502.09990099999999
      1.2142550000000001	632.10632499999997
      1.3346370000000001	795.77471500000001
      1.4229810000000001	1001.821011
      1.480634	1261.2179289999999
      1.5172140000000001	1587.779301
      1.5445150000000001	1998.89571
      1.571296	2516.4606050000002
      1.6020490000000001	3168.036204
      1.638404	3988.3212819999999
      1.68049	5020.9990129999996
      1.727311	6321.0632500000002
      1.776659	7957.747155
      1.8254010000000001	10018.210114
      1.870557	12612.179292999999
      1.910809	15877.793009999999
      1.947222	19988.957103000001
      1.9823280000000001	25164.606051999999
      2.0182519999999999	31680.362036999999
      2.0553979999999998	39883.212823000002
      2.0925449999999999	50209.990126999997
      2.1280950000000001	63210.632496999999
      2.1616119999999999	79577.471546000001
      2.1946439999999998	100182.101136
      2.2303389999999998	126121.79292599999
      2.272386	158777.930096
      2.3242820000000002	199889.57102999999
      2.3893559999999998	251646.06052200001
      2.471238	316803.62037000002
  <EndBlock>
  <BeginBlock>
    <BlockName> = "Wire"
    <Mu_x> = 1
    <Mu_y> = 1
    <H_c> = 0
    <H_cAngle> = 0
    <J_re> = 0
    <J_im> = 0
    <Sigma> = 58
    <d_lam> = 0
    <Phi_h> = 0
    <Phi_hx> = 0
    <Phi_hy> = 0
    <LamType> = 3
    <LamFill> = 1
    <NStrands> = 1
    <WireD> = 0.84999999999999998
    <BHPoints> = 0
  <EndBlock>
  <BeginBlock>
    <BlockName> = "17G1S"
    <Mu_x> = 1
    <Mu_y> = 1
    <H_c> = 0
    <H_cAngle> = 0
    <J_re> = 0
    <J_im> = 0
    <Sigma> = 1.4299999999999999
    <d_lam> = 0
    <Phi_h> = 0
    <Phi_hx> = 0
    <Phi_hy> = 0
    <LamType> = 0
    <LamFill> = 1
    <NStrands> = 0
    <WireD> = 0
    <BHPoints> = 21
      0	0
      0.16	270
      0.46999999999999997	430
      0.75149999999999995	560
      0.98999999999999999	791.84000000000003
      1.1799999999999999	1142.8599999999999
      1.3100000000000001	1559.1800000000001
      1.46	2400
      1.605	4000
      1.702	6040.8199999999997
      1.764	8000
      1.8120000000000001	10040.82
      1.8460000000000001	12040.82
      1.885	15000
      1.9319999999999999	20500
      2.0174509999999999	40500
      2.1173540000000002	90500
      2.2618670000000001	190500
      2.45696	340500
      2.967155	740500
      8.0439690000000006	4740500
  <EndBlock>
  <BeginBlock>
    <BlockName> = "12H18N10T"
    <Mu_x> = 1
    <Mu_y> = 1
    <H_c> = 0
    <H_cAngle> = 0
    <J_re> = 0
    <J_im> = 0
    <Sigma> = 1.379
    <d_lam> = 0
    <Phi_h> = 0
    <Phi_hx> = 0
    <Phi_hy> = 0
    <LamType> = 0
    <LamFill> = 1
    <NStrands> = 0
    <WireD> = 0
    <BHPoints> = 0
  <EndBlock>
  <BeginBlock>
    <BlockName> = "12H18N9T"
    <Mu_x> = 1.28
    <Mu_y> = 1.28
    <H_c> = 0
    <H_cAngle> = 0
    <J_re> = 0
    <J_im> = 0
    <Sigma> = 1.1599999999999999
    <d_lam> = 0
    <Phi_h> = 0
    <Phi_hx> = 0
    <Phi_hy> = 0
    <LamType> = 0
    <LamFill> = 1
    <NStrands> = 0
    <WireD> = 0
    <BHPoints> = 0
  <EndBlock>
[CircuitProps]  = 1
  <BeginCircuit>
    <CircuitName> = "New Circuit"
    <TotalAmps_re> = 0.18099999999999999
    <TotalAmps_im> = 0
    <CircuitType> = 1
  <EndCircuit>
[NumPoints] = 119
67.5	-34.5	0	0
67.5	34.5	0	0
80.5	34.5	0	0
80.5	-34.5	0	0
0	-3000	0	0
0	0	0	0
0	3000	0	0
85	-34.5	0	0
85	-46	0	0
65.5	-46	0	0
65.5	46	0	0
85	46	0	0
85	34.5	0	0
29.086079000000002	122	0	0
31.681279	115.734633	0	0
30.168199000000001	148.588415	0	0
52.5	129.5	0	0
37.5	129.5	0	0
37.5	149	0	0
30.446674999999999	149	0	0
33.529038	114.5	0	0
52.5	114.5	0	0
29.999611000000002	149	0	0
35	88.75	0	0
35	98.25	0	0
22.234632999999999	83.462412	0	0
22.234632999999999	103.537588	0	0
21	105.385347	0	0
21	111.69576600000001	0	0
21	75.304233999999994	0	0
21	81.614653000000004	0	0
26	156	0	0
24.608035999999998	156	0	0
21.397476000000001	148.43639400000001	0	0
21	146.48273900000001	0	0
21	127.83974600000001	0	0
20.330127000000001	125.33974600000001	0	0
15.669873000000001	117.267949	0	0
15	114.767949	0	0
15	72.232050999999998	0	0
15.669873000000001	69.732050999999998	0	0
20.330127000000001	61.660254000000002	0	0
21	59.160254000000002	0	0
21	40.517260999999998	0	0
21.397476000000001	38.563606	0	0
24.608035999999998	31	0	0
26	31	0	0
21	-111.69576600000001	0	0
21	-105.385347	0	0
22.234632999999999	-103.537588	0	0
35	-98.25	0	0
35	-88.75	0	0
22.234632999999999	-83.462412	0	0
21	-81.614653000000004	0	0
21	-75.304233999999994	0	0
26	-31	0	0
24.608035999999998	-31	0	0
21.397476000000001	-38.563606	0	0
21	-40.517260999999998	0	0
21	-59.160254000000002	0	0
20.330127000000001	-61.660254000000002	0	0
15.669873000000001	-69.732050999999998	0	0
15	-72.232050999999998	0	0
15	-114.767949	0	0
15.669873000000001	-117.267949	0	0
20.330127000000001	-125.33974600000001	0	0
21	-127.83974600000001	0	0
21	-146.48273900000001	0	0
21.397476000000001	-148.43639400000001	0	0
24.608035999999998	-156	0	0
26	-156	0	0
30.446674999999999	-149	0	0
30.000512000000001	-149	0	0
30.168199000000001	-148.588415	0	0
29.146370999999998	-122.121576	0	0
37.5	-149	0	0
37.5	-129.5	0	0
52.5	-129.5	0	0
52.5	-114.5	0	0
33.529038	-114.5	0	0
31.681279	-115.734633	0	0
61.5	21	0	0
61.5	-21	0	0
65.5	-44	0	0
65.5	44	0	0
51.5	44	0	0
51.5	26	0	0
56.5	26	0	0
56.5	-26	0	0
51.5	-26	0	0
51.5	-44	0	0
37.5	37	0	0
38.5	37	0	0
29.563490999999999	37	0	0
30.168199000000001	38.411585000000002	0	0
38.5	-37	0	0
30.168199000000001	-38.411585000000002	0	0
37.5	-37	0	0
29.086079000000002	-65	0	0
31.681279	-71.265366999999998	0	0
33.529038	-72.5	0	0
52.5	-72.5	0	0
52.5	-45	0	0
51.5	-45	0	0
51.5	45	0	0
52.5	45	0	0
52.5	72.5	0	0
33.529038	72.5	0	0
31.681279	71.265366999999998	0	0
29.086079000000002	65	0	0
0	-156	0	0
0	156	0	0
29.563490999999999	-37	0	0
350	0	0	0
1350	0	0	0
350	2979.5133830879163	0	0
340	2980.6710653810824	0	0
350	-2979.5133830879181	0	0
340	-2980.6710653810846	0	0
[NumSegments] = 86
0	1	0.10000000000000001	0	0	1
1	2	0.10000000000000001	0	0	1
3	0	0.10000000000000001	0	0	1
4	110	-1	0	0	0
5	111	-1	0	0	0
3	7	0.10000000000000001	0	0	1
8	9	0.10000000000000001	0	0	1
9	83	0.10000000000000001	0	0	1
83	84	0.10000000000000001	0	0	1
84	10	0.10000000000000001	0	0	1
10	11	0.10000000000000001	0	0	1
12	2	0.10000000000000001	0	0	1
113	115	-1	0	0	0
3	2	-1	0	0	0
11	12	-1	0	0	0
7	8	-1	0	0	0
13	14	-1	0	0	0
16	17	-1	0	0	0
17	18	-1	0	0	0
18	19	-1	0	0	0
20	21	-1	0	0	0
21	16	-1	0	0	0
19	22	-1	0	0	0
23	24	-1	0	0	0
25	23	-1	0	0	0
24	26	-1	0	0	0
27	28	-1	0	0	0
29	30	-1	0	0	0
31	32	-1	0	0	0
32	33	-1	0	0	0
34	35	-1	0	0	0
36	37	-1	0	0	0
38	39	-1	0	0	0
40	41	-1	0	0	0
42	43	-1	0	0	0
44	45	-1	0	0	0
45	46	-1	0	0	0
47	48	-1	0	0	0
49	50	-1	0	0	0
50	51	-1	0	0	0
51	52	-1	0	0	0
53	54	-1	0	0	0
55	56	-1	0	0	0
56	57	-1	0	0	0
58	59	-1	0	0	0
60	61	-1	0	0	0
62	63	-1	0	0	0
64	65	-1	0	0	0
66	67	-1	0	0	0
68	69	-1	0	0	0
69	70	-1	0	0	0
71	72	-1	0	0	0
71	75	-1	0	0	0
75	76	-1	0	0	0
76	77	-1	0	0	0
77	78	-1	0	0	0
78	79	-1	0	0	0
80	74	-1	0	0	0
81	82	-1	0	0	0
84	85	-1	0	0	0
85	86	-1	0	0	0
86	87	-1	0	0	0
88	89	-1	0	0	0
89	90	-1	0	0	0
90	83	-1	0	0	0
91	92	-1	0	0	0
91	93	-1	0	0	0
92	95	-1	0	0	0
95	97	-1	0	0	0
98	99	-1	0	0	0
100	101	-1	0	0	0
101	102	-1	0	0	0
102	103	-1	0	0	0
103	90	-1	0	0	0
89	86	-1	0	0	0
85	104	-1	0	0	0
104	105	-1	0	0	0
105	106	-1	0	0	0
106	107	-1	0	0	0
108	109	-1	0	0	0
110	5	-1	0	0	0
111	6	-1	0	0	0
97	112	-1	0	0	0
113	114	5	0	1	0
117	113	-1	0	0	0
118	116	1	0	0	0
[NumArcSegments] = 43
14	20	67.5	5	0	0	0	5
33	34	23	5	0	0	0	5
25	30	67.5	5	0	0	0	5
27	26	67.5	5	0	0	0	5
28	13	23.250573243286023	5	0	0	0	5
13	15	48.333190205222436	5	0	0	0	5
15	22	0.78412363672848107	5	0	0	0	5
22	31	14.249768914763004	5	0	0	0	5
36	35	30	5	0	0	0	5
37	38	30	5	0	0	0	5
39	40	30	5	0	0	0	5
42	41	30	5	0	0	0	5
43	44	23	5	0	0	0	5
46	93	12.326357694412041	5	0	0	0	5
93	94	2.7075347831946157	5	0	0	0	5
94	109	48.33319029669029	5	0	0	0	5
109	29	23.250573225703	5	0	0	0	5
57	58	23	5	0	0	0	5
67	68	23	5	0	0	0	5
63	64	30	5	0	0	0	5
61	62	30	5	0	0	0	5
49	48	67.5	5	0	0	0	5
53	52	67.5	5	0	0	0	5
54	98	23.250573225194017	5	0	0	0	5
98	96	48.333190295580131	5	0	0	0	5
96	112	2.7075347873005766	5	0	0	0	5
112	55	12.326357691925233	5	0	0	0	5
60	59	30	5	0	0	0	5
66	65	30	5	0	0	0	5
70	72	14.250379773920496	5	0	0	0	5
72	73	0.78351835646341839	5	0	0	0	5
73	74	48.093945522965164	5	0	0	0	5
74	47	23.48981234665083	5	0	0	0	5
79	80	67.5	5	0	0	0	5
88	82	90	5	0	0	0	5
81	87	90	5	0	0	0	5
99	100	67.5	5	0	0	0	5
107	108	67.5	5	0	0	0	5
4	118	6.5075035917447437	1	0	0	0	1
118	117	0.1922615860154408	1	0	0	0	1
117	115	166.60046964447994	1	0	0	0	1
115	116	0.19226158601544011	1	0	0	0	1
116	6	6.5075035917447472	1	0	0	0	1
[NumHoles] = 0
[NumBlockLabels] = 12
120	-300	1	10	0	0	0	1	0
343	92	4	1	0	0	4	1	0
477	-291	1	-1	0	0	0	1	0
74	-41	2	1	0	0	2	1	0
72	-19	3	0.5	1	0	1	950	0
56	4	1	-1	0	0	0	1	0
59	-37	2	1	0	0	3	1	0
44	-40	5	1	0	0	3	1	0
26	-51	5	1	0	0	3	1	0
28	54	5	1	0	0	3	1	0
45	-125	5	1	0	0	3	1	0
43	120	5	1	0	0	3	1	0
