[Format]      =  4.0
[Frequency]   =  22
[Precision]   =  1e-008
[MinAngle]    =  30
[DoSmartMesh] =  1
[Depth]       =  0
[LengthUnits] =  millimeters
[ProblemType] =  axisymmetric
[Coordinates] =  cartesian
[ACSolver]    =  0
[PrevType]    =  0
[PrevSoln]    =  ""
[Comment]     =  "Add comments here."
[PointProps]   = 0
[BdryProps]   = 0
[BlockProps]  = 8
  <BeginBlock>
    <BlockName> = "Air"
    <Mu_x> = 1
    <Mu_y> = 1
    <H_c> = 0
    <H_cAngle> = 0
    <J_re> = 0
    <J_im> = 0
    <Sigma> = 0
    <d_lam> = 0
    <Phi_h> = 0
    <Phi_hx> = 0
    <Phi_hy> = 0
    <LamType> = 0
    <LamFill> = 1
    <NStrands> = 0
    <WireD> = 0
    <BHPoints> = 0
  <EndBlock>
  <BeginBlock>
    <BlockName> = "1010 Steel"
    <Mu_x> = 902.60000000000002
    <Mu_y> = 902.60000000000002
    <H_c> = 0
    <H_cAngle> = 0
    <J_re> = 0
    <J_im> = 0
    <Sigma> = 5.7999999999999998
    <d_lam> = 0
    <Phi_h> = 20
    <Phi_hx> = 0
    <Phi_hy> = 0
    <LamType> = 0
    <LamFill> = 1
    <NStrands> = 0
    <WireD> = 0
    <BHPoints> = 38
      0	0
      0.21186199999999999	79.577472
      0.26566499999999998	100.182101
      0.33237699999999998	126.121793
      0.414377	158.77793
      0.51381100000000002	199.88957099999999
      0.63189899999999999	251.646061
      0.76778400000000002	316.80362000000002
      0.917018	398.83212800000001
      1.0703530000000001	502.09990099999999
      1.2142550000000001	632.10632499999997
      1.3346370000000001	795.77471500000001
      1.4229810000000001	1001.821011
      1.480634	1261.2179289999999
      1.5172140000000001	1587.779301
      1.5445150000000001	1998.89571
      1.571296	2516.4606050000002
      1.6020490000000001	3168.036204
      1.638404	3988.3212819999999
      1.68049	5020.9990129999996
      1.727311	6321.0632500000002
      1.776659	7957.747155
      1.8254010000000001	10018.210114
      1.870557	12612.179292999999
      1.910809	15877.793009999999
      1.947222	19988.957103000001
      1.9823280000000001	25164.606051999999
      2.0182519999999999	31680.362036999999
      2.0553979999999998	39883.212823000002
      2.0925449999999999	50209.990126999997
      2.1280950000000001	63210.632496999999
      2.1616119999999999	79577.471546000001
      2.1946439999999998	100182.101136
      2.2303389999999998	126121.79292599999
      2.272386	158777.930096
      2.3242820000000002	199889.57102999999
      2.3893559999999998	251646.06052200001
      2.471238	316803.62037000002
  <EndBlock>
  <BeginBlock>
    <BlockName> = "Wire"
    <Mu_x> = 1
    <Mu_y> = 1
    <H_c> = 0
    <H_cAngle> = 0
    <J_re> = 0
    <J_im> = 0
    <Sigma> = 58
    <d_lam> = 0
    <Phi_h> = 0
    <Phi_hx> = 0
    <Phi_hy> = 0
    <LamType> = 3
    <LamFill> = 1
    <NStrands> = 1
    <WireD> = 0.84999999999999998
    <BHPoints> = 0
  <EndBlock>
  <BeginBlock>
    <BlockName> = "17G1S"
    <Mu_x> = 1
    <Mu_y> = 1
    <H_c> = 0
    <H_cAngle> = 0
    <J_re> = 0
    <J_im> = 0
    <Sigma> = 1.4299999999999999
    <d_lam> = 0
    <Phi_h> = 0
    <Phi_hx> = 0
    <Phi_hy> = 0
    <LamType> = 0
    <LamFill> = 1
    <NStrands> = 0
    <WireD> = 0
    <BHPoints> = 21
      0	0
      0.16	270
      0.46999999999999997	430
      0.75149999999999995	560
      0.98999999999999999	791.84000000000003
      1.1799999999999999	1142.8599999999999
      1.3100000000000001	1559.1800000000001
      1.46	2400
      1.605	4000
      1.702	6040.8199999999997
      1.764	8000
      1.8120000000000001	10040.82
      1.8460000000000001	12040.82
      1.885	15000
      1.9319999999999999	20500
      2.0174509999999999	40500
      2.1173540000000002	90500
      2.2618670000000001	190500
      2.45696	340500
      2.967155	740500
      8.0439690000000006	4740500
  <EndBlock>
  <BeginBlock>
    <BlockName> = "12H18N10T"
    <Mu_x> = 1
    <Mu_y> = 1
    <H_c> = 0
    <H_cAngle> = 0
    <J_re> = 0
    <J_im> = 0
    <Sigma> = 1.379
    <d_lam> = 0
    <Phi_h> = 0
    <Phi_hx> = 0
    <Phi_hy> = 0
    <LamType> = 0
    <LamFill> = 1
    <NStrands> = 0
    <WireD> = 0
    <BHPoints> = 0
  <EndBlock>
  <BeginBlock>
    <BlockName> = "12H18N9T"
    <Mu_x> = 1.28
    <Mu_y> = 1.28
    <H_c> = 0
    <H_cAngle> = 0
    <J_re> = 0
    <J_im> = 0
    <Sigma> = 1.1599999999999999
    <d_lam> = 0
    <Phi_h> = 0
    <Phi_hx> = 0
    <Phi_hy> = 0
    <LamType> = 0
    <LamFill> = 1
    <NStrands> = 0
    <WireD> = 0
    <BHPoints> = 0
  <EndBlock>
  <BeginBlock>
    <BlockName> = "38H2MUA"
    <Mu_x> = 902.60000000000002
    <Mu_y> = 902.60000000000002
    <H_c> = 0
    <H_cAngle> = 0
    <J_re> = 0
    <J_im> = 0
    <Sigma> = 5.7999999999999998
    <d_lam> = 0
    <Phi_h> = 20
    <Phi_hx> = 0
    <Phi_hy> = 0
    <LamType> = 0
    <LamFill> = 1
    <NStrands> = 0
    <WireD> = 0
    <BHPoints> = 38
      0	0
      0.21186199999999999	79.577472
      0.26566499999999998	100.182101
      0.33237699999999998	126.121793
      0.414377	158.77793
      0.51381100000000002	199.88957099999999
      0.63189899999999999	251.646061
      0.76778400000000002	316.80362000000002
      0.917018	398.83212800000001
      1.0703530000000001	502.09990099999999
      1.2142550000000001	632.10632499999997
      1.3346370000000001	795.77471500000001
      1.4229810000000001	1001.821011
      1.480634	1261.2179289999999
      1.5172140000000001	1587.779301
      1.5445150000000001	1998.89571
      1.571296	2516.4606050000002
      1.6020490000000001	3168.036204
      1.638404	3988.3212819999999
      1.68049	5020.9990129999996
      1.727311	6321.0632500000002
      1.776659	7957.747155
      1.8254010000000001	10018.210114
      1.870557	12612.179292999999
      1.910809	15877.793009999999
      1.947222	19988.957103000001
      1.9823280000000001	25164.606051999999
      2.0182519999999999	31680.362036999999
      2.0553979999999998	39883.212823000002
      2.0925449999999999	50209.990126999997
      2.1280950000000001	63210.632496999999
      2.1616119999999999	79577.471546000001
      2.1946439999999998	100182.101136
      2.2303389999999998	126121.79292599999
      2.272386	158777.930096
      2.3242820000000002	199889.57102999999
      2.3893559999999998	251646.06052200001
      2.471238	316803.62037000002
  <EndBlock>
  <BeginBlock>
    <BlockName> = "Wire d=0.83 mm"
    <Mu_x> = 1
    <Mu_y> = 1
    <H_c> = 0
    <H_cAngle> = 0
    <J_re> = 0
    <J_im> = 0
    <Sigma> = 58
    <d_lam> = 0
    <Phi_h> = 0
    <Phi_hx> = 0
    <Phi_hy> = 0
    <LamType> = 3
    <LamFill> = 1
    <NStrands> = 1
    <WireD> = 0.82999999999999996
    <BHPoints> = 0
  <EndBlock>
[CircuitProps]  = 1
  <BeginCircuit>
    <CircuitName> = "New Circuit"
    <TotalAmps_re> = 0.16251490664193863
    <TotalAmps_im> = 0
    <CircuitType> = 1
  <EndCircuit>
[NumPoints] = 179
181	-297	0	0
172.67949200000001	-311.41154299999999	0	0
195	-401	0	0
195	-411	0	0
166	-411	0	0
166	-416	0	0
162.5	-416	0	0
162.5	-339	0	0
128	-329	0	0
128	-311	0	0
170	-401	0	0
170	-321.41154299999999	0	0
162.5	-191	0	0
181	-191	0	0
162.5	-301	0	0
152.5	-311	0	0
152.5	-329	0	0
56	143.67409799999999	0	0
56	143	0	0
54	143	0	0
54	125	0	0
31	125	0	0
31	134	0	0
2	167.14213599999999	0	0
2	210.044466	0	0
23	293.67815899999999	0	0
23	301	0	0
37.5	301	0	0
20	191.786404	0	0
20	180.088312	0	0
28.071068	141.071068	0	0
55.707107000000001	144.38120499999999	0	0
61.255510000000001	238.58982499999999	0	0
63.5	240.834315	0	0
63.5	251	0	0
86	251	0	0
86	247	0	0
89	247	0	0
89	234.907107	0	0
88	233.907107	0	0
88	217.907107	0	0
90	215.907107	0	0
90	215	0	0
64.5	215	0	0
56.083748	223.41625199999999	0	0
63.5	261.165685	0	0
61.255510000000001	263.41017499999998	0	0
89	269	0	0
65	281	0	0
65	269	0	0
58.105507000000003	281	0	0
20	-180.088312	0	0
20	-191.786404	0	0
37.5	-301	0	0
23	-301	0	0
23	-293.67815899999999	0	0
2	-210.044466	0	0
2	-167.14213599999999	0	0
31	-134	0	0
31	-125	0	0
54	-125	0	0
54	-143	0	0
56	-143	0	0
56	-144.088312	0	0
28.071068	-141.071068	0	0
63.5	-240.834315	0	0
61.255510000000001	-238.58982499999999	0	0
63.5	-251	0	0
86	-247	0	0
86	-251	0	0
89	-247	0	0
89	-234.907107	0	0
88	-233.907107	0	0
88	-217.907107	0	0
90	-215.907107	0	0
90	-215	0	0
56.083748	-223.41625199999999	0	0
64.5	-215	0	0
61.255510000000001	-263.41017499999998	0	0
63.5	-261.165685	0	0
65	-281	0	0
58.105507000000003	-281	0	0
65	-269	0	0
89	-269	0	0
42	-50	0	0
42	-91	0	0
46	-95	0	0
56	-95	0	0
56	-125	0	0
31	-129	0	0
25	-129	0	0
25	127	0	0
27	129	0	0
31	129	0	0
56	125	0	0
56	98	0	0
53	95	0	0
46	95	0	0
42	91	0	0
42	50	0	0
46	46	0	0
65.5	46	0	0
65.5	34	0	0
46	34	0	0
42	30	0	0
42	-30	0	0
46	-34	0	0
65.5	-34	0	0
65.5	-46	0	0
46	-46	0	0
110	353	0	0
110	1033	0	0
128	353	0	0
128	1033	0	0
110	-1191	0	0
110	-311	0	0
128	-1191	0	0
89.5	382	0	0
100	382	0	0
100	388	0	0
110	388	0	0
70	293	0	0
70	319	0	0
76.713200999999998	319	0	0
78.682816000000003	320.65270400000003	0	0
108	293	0	0
108	329	0	0
128	329	0	0
30.786797	-310.21320300000002	0	0
52	-289	0	0
65	-289	0	0
110	-346	0	0
98	-346	0	0
98	-328	0	0
66.108099999999993	-305.534177	0	0
22	-331	0	0
71.822038000000006	-306.03408200000001	0	0
145	-311	0	0
145	-287	0	0
90	-287	0	0
90	-271	0	0
88	-269	0	0
22	331	0	0
42.784610000000001	319	0	0
65	289	0	0
52	289	0	0
30.786797	310.21320300000002	0	0
108	269	0	0
82.75	46	0	0
83.75	45	0	0
66.5	46	0	0
65.5	45	0	0
65.5	-45	0	0
66.5	-46	0	0
82.75	-46	0	0
83.75	-45	0	0
83.75	-34.5	0	0
67.5	-34.5	0	0
67.5	34.5	0	0
83.75	34.5	0	0
80.5	34.5	0	0
80.5	-34.5	0	0
0	331	0	0
0	-331	0	0
0	-319	0	0
9.5735930000000007	-319	0	0
9.5735930000000007	319	0	0
0	319	0	0
56.303785843246679	278.13178293422237	0	0
56.303786148541334	-278.13178330555007	0	0
0	0	0	0
0	2000	0	0
0	-2000	0	0
340	-1970.888124678821	0	0
350	-1969.1368667515217	0	0
350	1969.136866751521	0	0
340	1970.8881246788205	0	0
350	0	0	0
1350	0	0	0
[NumSegments] = 164
0	1	-1	0	0	0
2	3	-1	0	0	0
4	5	-1	0	0	0
5	6	-1	0	0	0
6	7	-1	0	0	0
8	9	-1	0	0	0
3	4	-1	0	0	0
10	2	-1	0	0	0
11	10	-1	0	0	0
12	13	-1	0	0	0
13	0	-1	0	0	0
14	12	-1	0	0	0
9	137	-1	0	0	0
16	8	-1	0	0	0
17	18	-1	0	0	0
18	19	-1	0	0	0
19	20	-1	0	0	0
21	93	-1	0	0	0
23	24	-1	0	0	0
25	26	-1	0	0	0
26	27	-1	0	0	0
28	29	-1	0	0	0
30	23	-1	0	0	0
29	31	-1	0	0	0
20	21	-1	0	0	0
32	33	-1	0	0	0
33	34	-1	0	0	0
35	36	-1	0	0	0
36	37	-1	0	0	0
37	38	-1	0	0	0
38	39	-1	0	0	0
39	40	-1	0	0	0
40	41	-1	0	0	0
41	42	-1	0	0	0
43	44	-1	0	0	0
42	43	-1	0	0	0
34	35	-1	0	0	0
45	46	-1	0	0	0
34	45	-1	0	0	0
47	37	-1	0	0	0
48	49	-1	0	0	0
50	48	-1	0	0	0
49	47	-1	0	0	0
51	52	-1	0	0	0
53	54	-1	0	0	0
54	55	-1	0	0	0
56	57	-1	0	0	0
58	89	-1	0	0	0
60	61	-1	0	0	0
61	62	-1	0	0	0
62	63	-1	0	0	0
57	64	-1	0	0	0
63	51	-1	0	0	0
59	60	-1	0	0	0
65	66	-1	0	0	0
67	65	-1	0	0	0
68	69	-1	0	0	0
70	68	-1	0	0	0
71	70	-1	0	0	0
72	71	-1	0	0	0
73	72	-1	0	0	0
74	73	-1	0	0	0
75	74	-1	0	0	0
76	77	-1	0	0	0
69	67	-1	0	0	0
77	75	-1	0	0	0
78	79	-1	0	0	0
80	81	-1	0	0	0
82	80	-1	0	0	0
70	83	-1	0	0	0
79	67	-1	0	0	0
83	141	-1	0	0	0
84	85	-1	0	0	0
86	87	-1	0	0	0
87	88	-1	0	0	0
88	60	-1	0	0	0
89	59	-1	0	0	0
89	90	-1	0	0	0
90	91	-1	0	0	0
91	92	-1	0	0	0
93	22	-1	0	0	0
92	93	-1	0	0	0
20	94	-1	0	0	0
94	95	-1	0	0	0
95	96	-1	0	0	0
96	97	-1	0	0	0
98	99	-1	0	0	0
100	101	-1	0	0	0
101	151	-1	0	0	0
102	103	-1	0	0	0
104	105	-1	0	0	0
106	107	-1	0	0	0
107	152	-1	0	0	0
108	109	-1	0	0	0
110	120	-1	0	0	0
112	110	-1	0	0	0
111	113	-1	0	0	0
113	112	-1	0	0	0
114	131	-1	0	0	0
115	9	-1	0	0	0
8	116	-1	0	0	0
116	114	-1	0	0	0
117	118	-1	0	0	0
118	119	-1	0	0	0
120	111	-1	0	0	0
119	120	-1	0	0	0
121	122	-1	0	0	0
122	123	-1	0	0	0
124	117	-1	0	0	0
125	121	-1	0	0	0
126	125	-1	0	0	0
127	126	-1	0	0	0
112	127	-1	0	0	0
128	129	-1	0	0	0
129	130	-1	0	0	0
130	80	-1	0	0	0
131	115	-1	0	0	0
131	132	-1	0	0	0
132	133	-1	0	0	0
134	135	-1	0	0	0
133	136	-1	0	0	0
137	15	-1	0	0	0
138	137	-1	0	0	0
139	138	-1	0	0	0
140	139	-1	0	0	0
141	82	-1	0	0	0
141	140	-1	0	0	0
142	143	-1	0	0	0
143	122	-1	0	0	0
48	144	-1	0	0	0
144	145	-1	0	0	0
145	146	-1	0	0	0
125	147	-1	0	0	0
147	47	-1	0	0	0
148	149	-1	0	0	0
150	148	-1	0	0	0
151	102	-1	0	0	0
151	150	-1	0	0	0
152	108	-1	0	0	0
107	102	-1	0	0	0
153	152	-1	0	0	0
154	153	-1	0	0	0
155	154	-1	0	0	0
156	155	-1	0	0	0
157	161	-1	0	0	0
158	157	-1	0	0	0
159	160	-1	0	0	0
149	159	-1	0	0	0
160	158	-1	0	0	0
161	156	-1	0	0	0
160	161	-1	0	0	0
162	167	-1	0	0	0
162	142	-1	0	0	0
135	163	-1	0	0	0
164	163	-1	0	0	0
164	165	-1	0	0	0
167	170	-1	0	0	0
166	167	-1	0	0	0
170	164	-1	0	0	0
162	171	-1	0	0	0
163	172	-1	0	0	0
173	176	-1	0	0	0
175	177	-1	0	0	0
177	174	-1	0	0	0
[NumArcSegments] = 35
1	11	30	5	0	0	0	5
15	14	90	5	0	0	0	5
7	16	90	5	0	0	0	5
17	31	45	5	0	0	0	5
22	30	45	5	0	0	0	5
24	25	146.71481299999999	5	0	0	0	5
28	44	45.147666923703149	5	0	0	0	5
44	32	14.736479658025504	5	0	0	0	5
32	46	22.905856201899848	5	0	0	0	5
46	168	14.275653645448804	5	0	0	0	5
168	27	27.401520570922806	5	0	0	0	5
50	168	115.72858199999999	5	0	0	0	5
53	169	27.40152038575798	5	0	0	0	5
78	66	22.905856201899848	5	0	0	0	5
66	76	14.736479658025496	5	0	0	0	5
76	52	45.147666923703127	5	0	0	0	5
55	56	146.71481299999999	5	0	0	0	5
64	58	45	5	0	0	0	5
169	78	14.275653830613619	5	0	0	0	5
169	81	115.72858199999999	5	0	0	0	5
85	86	90	5	0	0	0	5
97	98	90	5	0	0	0	5
99	100	90	5	0	0	0	5
103	104	90	5	0	0	0	5
105	106	90	5	0	0	0	5
109	84	90	5	0	0	0	5
123	124	80	5	0	0	0	5
165	128	45	5	0	0	0	5
136	134	70	5	0	0	0	5
146	166	45	5	0	0	0	5
172	173	9.7878190567139782	1	0	0	0	1
173	174	0.29083905107368591	1	0	0	0	1
174	175	159.84268378442457	1	0	0	0	1
175	176	0.29083905107368901	1	0	0	0	1
176	171	9.7878190567139782	1	0	0	0	1
[NumHoles] = 0
[NumBlockLabels] = 22
270	-300	1	10	0	0	0	1	0
343	92	4	1	0	0	4	1	0
477	-291	1	-1	0	0	0	1	0
74	-41	5	1	0	0	2	1	0
72	-19	8	0.5	1	0	1	949	0
56	4	1	1	0	0	0	1	0
59	-37	2	1	0	0	0	1	0
71.329999999999998	-247.77000000000001	7	1	0	0	0	1	0
67	-255	7	1	0	0	0	1	0
10	-20	1	-1	0	0	0	1	0
115	-360	2	1	0	0	3	1	0
148	-319	5	1	0	0	0	1	0
123	440	2	1	0	0	3	1	0
76	-286	5	1	0	0	0	1	0
37	-218	7	1	0	0	0	1	0
99	331	5	1	0	0	0	1	0
51	310	5	1	0	0	0	1	0
50	265	7	1	0	0	0	1	0
80	258	7	1	0	0	0	1	0
76	226	7	1	0	0	0	1	0
62.5	242.30000000000001	1	-1	0	0	0	1	0
62.899999999999999	-243.59999999999999	1	-1	0	0	0	1	0
